dss/import/capas-pablo/Formato-plugin/cooperativa/Red_MT.txt
New Line.IDLinea145_IDTramos_1 bus1=23 bus2=80 length=40.575 units=m r1=0.000952086 r0=0.00109752 x1=0.00033682 x0=0.00172989 c1=0.0109851 c0=0.00359782 enabled=True phases=3
New Line.IDLinea146_IDTramos_2 bus1=23 bus2=1 length=12.926 units=m r1=0.000952086 r0=0.00109752 x1=0.00033682 x0=0.00172989 c1=0.0109851 c0=0.00359782 enabled=True phases=3
New Line.IDLinea146_IDTramos_3 bus1=1 bus2=2 length=41.476 units=m r1=0.000952086 r0=0.00109752 x1=0.00033682 x0=0.00172989 c1=0.0109851 c0=0.00359782 enabled=True phases=3
New Line.IDLinea147_IDTramos_4 bus1=3 bus2=88 length=10.615 units=m r1=0.000352234 r0=0.000497666 x1=0.000305055 x0=0.00169813 c1=0.0122161 c0=0.00372013 enabled=True phases=3
New Line.IDLinea148_IDTramos_5 bus1=21 bus2=24 length=38.666 units=m r1=0.000952086 r0=0.00109752 x1=0.00033682 x0=0.00172989 c1=0.0109851 c0=0.00359782 enabled=True phases=3
New Line.IDLinea149_IDTramos_6 bus1=37 bus2=4 length=28.564 units=m r1=0.000952086 r0=0.00109752 x1=0.00033682 x0=0.00172989 c1=0.0109851 c0=0.00359782 enabled=True phases=3
New Line.IDLinea150_IDTramos_7 bus1=40 bus2=102 length=67.164 units=m r1=0.000952086 r0=0.00109752 x1=0.00033682 x0=0.00172989 c1=0.0109851 c0=0.00359782 enabled=True phases=3
New Line.IDLinea151_IDTramos_8 bus1=104 bus2=43 length=8.713 units=m r1=0.000952086 r0=0.00109752 x1=0.00033682 x0=0.00172989 c1=0.0109851 c0=0.00359782 enabled=True phases=3
New Line.IDLinea152_IDTramos_9 bus1=104 bus2=5 length=11.284 units=m r1=0.000952086 r0=0.00109752 x1=0.00033682 x0=0.00172989 c1=0.0109851 c0=0.00359782 enabled=True phases=3
New Line.IDLinea155_IDTramos_10 bus1=23 bus2=26 length=185.044 units=m r1=0.000275299 r0=0.000420731 x1=0.000297103 x0=0.00169017 c1=0.0125692 c0=0.00375209 enabled=True phases=3
New Line.IDLinea173_IDTramos_11 bus1=6 bus2=46 length=79.298 units=m r1=0.000952086 r0=0.00109752 x1=0.00033682 x0=0.00172989 c1=0.0109851 c0=0.00359782 enabled=True phases=3
New Line.IDLinea174_IDTramos_12 bus1=7 bus2=50 length=60.317 units=m r1=0.000952086 r0=0.00109752 x1=0.00033682 x0=0.00172989 c1=0.0109851 c0=0.00359782 enabled=True phases=3
New Line.IDLinea175_IDTramos_13 bus1=49 bus2=50 length=35.543 units=m r1=0.000952086 r0=0.00109752 x1=0.00033682 x0=0.00172989 c1=0.0109851 c0=0.00359782 enabled=True phases=3
New Line.IDLinea160_IDTramos_14 bus1=48 bus2=8 length=222.605 units=m r1=0.000952086 r0=0.00109752 x1=0.00033682 x0=0.00172989 c1=0.0109851 c0=0.00359782 enabled=True phases=3
New Line.IDLinea160_IDTramos_15 bus1=8 bus2=65 length=16.407 units=m r1=0.000952086 r0=0.00109752 x1=0.00033682 x0=0.00172989 c1=0.0109851 c0=0.00359782 enabled=True phases=3
New Line.IDLinea162_IDTramos_16 bus1=73 bus2=84 length=362.756 units=m r1=0.000952086 r0=0.00109752 x1=0.00033682 x0=0.00172989 c1=0.0109851 c0=0.00359782 enabled=True phases=3
New Line.IDLinea163_IDTramos_17 bus1=72 bus2=74 length=22.841 units=m r1=0.000952086 r0=0.00109752 x1=0.00033682 x0=0.00172989 c1=0.0109851 c0=0.00359782 enabled=True phases=3
New Line.IDLinea164_IDTramos_18 bus1=68 bus2=69 length=22.366 units=m r1=0.000952086 r0=0.00109752 x1=0.00033682 x0=0.00172989 c1=0.0109851 c0=0.00359782 enabled=True phases=3
New Line.IDLinea165_IDTramos_19 bus1=60 bus2=61 length=15.737 units=m r1=0.00209004 r0=0.00223547 x1=0.000361884 x0=0.00175495 c1=0.0101771 c0=0.00350694 enabled=True phases=3
New Line.IDLinea166_IDTramos_20 bus1=55 bus2=56 length=20.291 units=m r1=0.000952086 r0=0.00109752 x1=0.00033682 x0=0.00172989 c1=0.0109851 c0=0.00359782 enabled=True phases=3
New Line.IDLinea168_IDTramos_21 bus1=51 bus2=9 length=114.039 units=m r1=0.000663124 r0=0.000808557 x1=0.000325502 x0=0.00171857 c1=0.0113939 c0=0.00364045 enabled=True phases=3
New Line.IDLinea168_IDTramos_22 bus1=9 bus2=53 length=170.108 units=m r1=0.000663124 r0=0.000808557 x1=0.000325502 x0=0.00171857 c1=0.0113939 c0=0.00364045 enabled=True phases=3
New Line.IDLinea170_IDTramos_23 bus1=54 bus2=55 length=193.189 units=m r1=0.00131006 r0=0.0014555 x1=0.000346644 x0=0.00173971 c1=0.0106534 c0=0.00356164 enabled=True phases=3
New Line.IDLinea171_IDTramos_24 bus1=46 bus2=10 length=80.513 units=m r1=0.000952086 r0=0.00109752 x1=0.00033682 x0=0.00172989 c1=0.0109851 c0=0.00359782 enabled=True phases=3
New Line.IDLinea172_IDTramos_25 bus1=31 bus2=6 length=22.212 units=m r1=0.000952086 r0=0.00109752 x1=0.00033682 x0=0.00172989 c1=0.0109851 c0=0.00359782 enabled=True phases=3
New Line.IDLinea177_IDTramos_26 bus1=26 bus2=11 length=101.667 units=m r1=0.000275299 r0=0.000420731 x1=0.000297103 x0=0.00169017 c1=0.0125692 c0=0.00375209 enabled=True phases=3
New Line.IDLinea178_IDTramos_27 bus1=11 bus2=28 length=108.454 units=m r1=0.00048417 r0=0.000629602 x1=0.000315326 x0=0.0017084 c1=0.0117887 c0=0.00367967 enabled=True phases=3
New Line.IDLinea179_IDTramos_28 bus1=33 bus2=34 length=1141.512 units=m r1=0.000663124 r0=0.000808557 x1=0.000325502 x0=0.00171857 c1=0.0113939 c0=0.00364045 enabled=True phases=3
New Line.IDLinea167_IDTramos_29 bus1=63 bus2=12 length=19.284 units=m r1=0.00131006 r0=0.0014555 x1=0.000346644 x0=0.00173971 c1=0.0106534 c0=0.00356164 enabled=True phases=3
New Line.IDLinea169_IDTramos_30 bus1=13 bus2=51 length=276.091 units=m r1=0.00048417 r0=0.000629602 x1=0.000315326 x0=0.0017084 c1=0.0117887 c0=0.00367967 enabled=True phases=3
New Line.IDLinea286_IDTramos_31 bus1=84 bus2=14 length=23.774 units=m r1=0.000952086 r0=0.00109752 x1=0.00033682 x0=0.00172989 c1=0.0109851 c0=0.00359782 enabled=True phases=3
New Line.IDLinea286_IDTramos_32 bus1=14 bus2=15 length=10.572 units=m r1=0.000952086 r0=0.00109752 x1=0.00033682 x0=0.00172989 c1=0.0109851 c0=0.00359782 enabled=True phases=3
New Line.IDLinea286_IDTramos_33 bus1=15 bus2=76 length=152.001 units=m r1=0.000952086 r0=0.00109752 x1=0.00033682 x0=0.00172989 c1=0.0109851 c0=0.00359782 enabled=True phases=3
New Line.IDLinea290_IDTramos_34 bus1=90 bus2=94 length=5.009 units=m r1=0.000352234 r0=0.000497666 x1=0.000305055 x0=0.00169813 c1=0.0122161 c0=0.00372013 enabled=True phases=3
New Line.IDLinea161_IDTramos_35 bus1=67 bus2=16 length=20.68 units=m r1=0.000952086 r0=0.00109752 x1=0.00033682 x0=0.00172989 c1=0.0109851 c0=0.00359782 enabled=True phases=3
New Line.IDLinea161_IDTramos_36 bus1=16 bus2=17 length=15.806 units=m r1=0.000952086 r0=0.00109752 x1=0.00033682 x0=0.00172989 c1=0.0109851 c0=0.00359782 enabled=True phases=3
New Line.IDLinea161_IDTramos_37 bus1=17 bus2=68 length=116.776 units=m r1=0.000952086 r0=0.00109752 x1=0.00033682 x0=0.00172989 c1=0.0109851 c0=0.00359782 enabled=True phases=3
New Line.IDLinea710_IDTramos_38 bus1=89 bus2=18 length=12.42 units=m r1=0.000352234 r0=0.000497666 x1=0.000305055 x0=0.00169813 c1=0.0122161 c0=0.00372013 enabled=True phases=3
New Line.IDLinea710_IDTramos_39 bus1=18 bus2=19 length=21.094 units=m r1=0.000352234 r0=0.000497666 x1=0.000305055 x0=0.00169813 c1=0.0122161 c0=0.00372013 enabled=True phases=3
New Line.IDLinea710_IDTramos_40 bus1=19 bus2=90 length=4.716 units=m r1=0.000352234 r0=0.000497666 x1=0.000305055 x0=0.00169813 c1=0.0122161 c0=0.00372013 enabled=True phases=3
New Line.IDLinea712_IDTramos_41 bus1=93 bus2=78 length=155.666 units=m r1=0.000352234 r0=0.000497666 x1=0.000305055 x0=0.00169813 c1=0.0122161 c0=0.00372013 enabled=True phases=3
New Line.IDLinea713_IDTramos_42 bus1=79 bus2=20 length=40.975 units=m r1=0.000352234 r0=0.000497666 x1=0.000305055 x0=0.00169813 c1=0.0122161 c0=0.00372013 enabled=True phases=3
New Line.IDLinea713_IDTramos_43 bus1=20 bus2=21 length=26.842 units=m r1=0.000352234 r0=0.000497666 x1=0.000305055 x0=0.00169813 c1=0.0122161 c0=0.00372013 enabled=True phases=3
New Line.IDLinea714_IDTramos_44 bus1=21 bus2=22 length=41.536 units=m r1=0.000352234 r0=0.000497666 x1=0.000305055 x0=0.00169813 c1=0.0122161 c0=0.00372013 enabled=True phases=3
New Line.IDLinea714_IDTramos_45 bus1=22 bus2=23 length=120.432 units=m r1=0.000352234 r0=0.000497666 x1=0.000305055 x0=0.00169813 c1=0.0122161 c0=0.00372013 enabled=True phases=3
New Line.IDLinea715_IDTramos_46 bus1=24 bus2=25 length=162.672 units=m r1=0.000952086 r0=0.00109752 x1=0.00033682 x0=0.00172989 c1=0.0109851 c0=0.00359782 enabled=True phases=3
New Line.IDLinea716_IDTramos_47 bus1=26 bus2=27 length=3.225 units=m r1=0.000275299 r0=0.000420731 x1=0.000297103 x0=0.00169017 c1=0.0125692 c0=0.00375209 enabled=True phases=3
New Line.IDLinea718_IDTramos_48 bus1=28 bus2=29 length=117.489 units=m r1=0.00048417 r0=0.000629602 x1=0.000315326 x0=0.0017084 c1=0.0117887 c0=0.00367967 enabled=True phases=3
New Line.IDLinea719_IDTramos_49 bus1=29 bus2=30 length=136.059 units=m r1=0.00048417 r0=0.000629602 x1=0.000315326 x0=0.0017084 c1=0.0117887 c0=0.00367967 enabled=True phases=3
New Line.IDLinea719_IDTramos_50 bus1=30 bus2=31 length=103.104 units=m r1=0.00048417 r0=0.000629602 x1=0.000315326 x0=0.0017084 c1=0.0117887 c0=0.00367967 enabled=True phases=3
New Line.IDLinea720_IDTramos_51 bus1=31 bus2=32 length=89.533 units=m r1=0.00048417 r0=0.000629602 x1=0.000315326 x0=0.0017084 c1=0.0117887 c0=0.00367967 enabled=True phases=3
New Line.IDLinea721_IDTramos_52 bus1=32 bus2=33 length=136.284 units=m r1=0.00048417 r0=0.000629602 x1=0.000315326 x0=0.0017084 c1=0.0117887 c0=0.00367967 enabled=True phases=3
New Line.IDLinea722_IDTramos_53 bus1=34 bus2=35 length=117.111 units=m r1=0.000663124 r0=0.000808557 x1=0.000325502 x0=0.00171857 c1=0.0113939 c0=0.00364045 enabled=True phases=3
New Line.IDLinea723_IDTramos_54 bus1=25 bus2=36 length=145.713 units=m r1=0.000952086 r0=0.00109752 x1=0.00033682 x0=0.00172989 c1=0.0109851 c0=0.00359782 enabled=True phases=3
New Line.IDLinea724_IDTramos_55 bus1=37 bus2=38 length=216.664 units=m r1=0.000952086 r0=0.00109752 x1=0.00033682 x0=0.00172989 c1=0.0109851 c0=0.00359782 enabled=True phases=3
New Line.IDLinea725_IDTramos_56 bus1=36 bus2=37 length=81.082 units=m r1=0.000952086 r0=0.00109752 x1=0.00033682 x0=0.00172989 c1=0.0109851 c0=0.00359782 enabled=True phases=3
New Line.IDLinea726_IDTramos_57 bus1=38 bus2=39 length=349.016 units=m r1=0.000952086 r0=0.00109752 x1=0.00033682 x0=0.00172989 c1=0.0109851 c0=0.00359782 enabled=True phases=3
New Line.IDLinea727_IDTramos_58 bus1=39 bus2=40 length=30.731 units=m r1=0.000952086 r0=0.00109752 x1=0.00033682 x0=0.00172989 c1=0.0109851 c0=0.00359782 enabled=True phases=3
New Line.IDLinea728_IDTramos_59 bus1=40 bus2=41 length=12.44 units=m r1=0.000952086 r0=0.00109752 x1=0.00033682 x0=0.00172989 c1=0.0109851 c0=0.00359782 enabled=True phases=3
New Line.IDLinea729_IDTramos_60 bus1=104 bus2=42 length=23.496 units=m r1=0.000952086 r0=0.00109752 x1=0.00033682 x0=0.00172989 c1=0.0109851 c0=0.00359782 enabled=True phases=3
New Line.IDLinea730_IDTramos_61 bus1=43 bus2=44 length=7.992 units=m r1=0.000952086 r0=0.00109752 x1=0.00033682 x0=0.00172989 c1=0.0109851 c0=0.00359782 enabled=True phases=3
New Line.IDLinea739_IDTramos_62 bus1=45 bus2=105 length=62.183 units=m r1=0.00048417 r0=0.000629602 x1=0.000315326 x0=0.0017084 c1=0.0117887 c0=0.00367967 enabled=True phases=3
New Line.IDLinea740_IDTramos_63 bus1=46 bus2=47 length=109.797 units=m r1=0.000952086 r0=0.00109752 x1=0.00033682 x0=0.00172989 c1=0.0109851 c0=0.00359782 enabled=True phases=3
New Line.IDLinea741_IDTramos_64 bus1=47 bus2=48 length=16.795 units=m r1=0.000952086 r0=0.00109752 x1=0.00033682 x0=0.00172989 c1=0.0109851 c0=0.00359782 enabled=True phases=3
New Line.IDLinea742_IDTramos_65 bus1=48 bus2=49 length=81.225 units=m r1=0.000952086 r0=0.00109752 x1=0.00033682 x0=0.00172989 c1=0.0109851 c0=0.00359782 enabled=True phases=3
New Line.IDLinea743_IDTramos_66 bus1=50 bus2=51 length=114.746 units=m r1=0.000952086 r0=0.00109752 x1=0.00033682 x0=0.00172989 c1=0.0109851 c0=0.00359782 enabled=True phases=3
New Line.IDLinea744_IDTramos_67 bus1=51 bus2=52 length=23.296 units=m r1=0.000952086 r0=0.00109752 x1=0.00033682 x0=0.00172989 c1=0.0109851 c0=0.00359782 enabled=True phases=3
New Line.IDLinea745_IDTramos_68 bus1=53 bus2=54 length=11.732 units=m r1=0.000663124 r0=0.000808557 x1=0.000325502 x0=0.00171857 c1=0.0113939 c0=0.00364045 enabled=True phases=3
New Line.IDLinea746_IDTramos_69 bus1=55 bus2=58 length=23.717 units=m r1=0.00131006 r0=0.0014555 x1=0.000346644 x0=0.00173971 c1=0.0106534 c0=0.00356164 enabled=True phases=3
New Line.IDLinea747_IDTramos_70 bus1=56 bus2=57 length=261.165 units=m r1=0.000952086 r0=0.00109752 x1=0.00033682 x0=0.00172989 c1=0.0109851 c0=0.00359782 enabled=True phases=3
New Line.IDLinea748_IDTramos_71 bus1=58 bus2=59 length=36.266 units=m r1=0.00131006 r0=0.0014555 x1=0.000346644 x0=0.00173971 c1=0.0106534 c0=0.00356164 enabled=True phases=3
New Line.IDLinea749_IDTramos_72 bus1=60 bus2=63 length=9.709 units=m r1=0.00131006 r0=0.0014555 x1=0.000346644 x0=0.00173971 c1=0.0106534 c0=0.00356164 enabled=True phases=3
New Line.IDLinea750_IDTramos_73 bus1=61 bus2=62 length=264.579 units=m r1=0.000952086 r0=0.00109752 x1=0.00033682 x0=0.00172989 c1=0.0109851 c0=0.00359782 enabled=True phases=3
New Line.IDLinea751_IDTramos_74 bus1=63 bus2=64 length=275.066 units=m r1=0.00131006 r0=0.0014555 x1=0.000346644 x0=0.00173971 c1=0.0106534 c0=0.00356164 enabled=True phases=3
New Line.IDLinea752_IDTramos_75 bus1=65 bus2=66 length=36.386 units=m r1=0.000952086 r0=0.00109752 x1=0.00033682 x0=0.00172989 c1=0.0109851 c0=0.00359782 enabled=True phases=3
New Line.IDLinea752_IDTramos_76 bus1=66 bus2=67 length=19.17 units=m r1=0.000952086 r0=0.00109752 x1=0.00033682 x0=0.00172989 c1=0.0109851 c0=0.00359782 enabled=True phases=3
New Line.IDLinea753_IDTramos_77 bus1=68 bus2=72 length=25.176 units=m r1=0.000952086 r0=0.00109752 x1=0.00033682 x0=0.00172989 c1=0.0109851 c0=0.00359782 enabled=True phases=3
New Line.IDLinea754_IDTramos_78 bus1=69 bus2=70 length=56.014 units=m r1=0.000952086 r0=0.00109752 x1=0.00033682 x0=0.00172989 c1=0.0109851 c0=0.00359782 enabled=True phases=3
New Line.IDLinea754_IDTramos_79 bus1=70 bus2=71 length=70.949 units=m r1=0.000952086 r0=0.00109752 x1=0.00033682 x0=0.00172989 c1=0.0109851 c0=0.00359782 enabled=True phases=3
New Line.IDLinea755_IDTramos_80 bus1=72 bus2=73 length=42.178 units=m r1=0.000952086 r0=0.00109752 x1=0.00033682 x0=0.00172989 c1=0.0109851 c0=0.00359782 enabled=True phases=3
New Line.IDLinea756_IDTramos_81 bus1=74 bus2=75 length=137.521 units=m r1=0.000952086 r0=0.00109752 x1=0.00033682 x0=0.00172989 c1=0.0109851 c0=0.00359782 enabled=True phases=3
New Line.IDLinea758_IDTramos_82 bus1=76 bus2=77 length=89.047 units=m r1=0.000952086 r0=0.00109752 x1=0.00033682 x0=0.00172989 c1=0.0109851 c0=0.00359782 enabled=True phases=3
New Line.IDLinea899_IDTramos_83 bus1=78 bus2=79 length=22.579 units=m r1=0.000352234 r0=0.000497666 x1=0.000305055 x0=0.00169813 c1=0.0122161 c0=0.00372013 enabled=True phases=3
New Line.IDLinea908_IDTramos_84 bus1=80 bus2=81 length=207.223 units=m r1=0.000952086 r0=0.00109752 x1=0.00033682 x0=0.00172989 c1=0.0109851 c0=0.00359782 enabled=True phases=3
New Line.IDLinea909_IDTramos_85 bus1=82 bus2=83 length=170.6 units=m r1=0.000952086 r0=0.00109752 x1=0.00033682 x0=0.00172989 c1=0.0109851 c0=0.00359782 enabled=True phases=3
New Line.IDLinea923_IDTramos_86 bus1=84 bus2=85 length=32.803 units=m r1=0.000952086 r0=0.00109752 x1=0.00033682 x0=0.00172989 c1=0.0109851 c0=0.00359782 enabled=True phases=3
New Line.IDLinea923_IDTramos_87 bus1=85 bus2=86 length=39.723 units=m r1=0.000952086 r0=0.00109752 x1=0.00033682 x0=0.00172989 c1=0.0109851 c0=0.00359782 enabled=True phases=3
New Line.IDLinea923_IDTramos_88 bus1=86 bus2=87 length=39.313 units=m r1=0.000952086 r0=0.00109752 x1=0.00033682 x0=0.00172989 c1=0.0109851 c0=0.00359782 enabled=True phases=3
New Line.IDLinea939_IDTramos_89 bus1=88 bus2=89 length=26.829 units=m r1=0.000352234 r0=0.000497666 x1=0.000305055 x0=0.00169813 c1=0.0122161 c0=0.00372013 enabled=True phases=3
New Line.IDLinea900_IDTramos_90 bus1=78 bus2=82 length=26.248 units=m r1=0.000952086 r0=0.00109752 x1=0.00033682 x0=0.00172989 c1=0.0109851 c0=0.00359782 enabled=True phases=3
New Line.IDLinea891_IDTramos_91 bus1=90 bus2=91 length=20.697 units=m r1=0.000352234 r0=0.000497666 x1=0.000305055 x0=0.00169813 c1=0.0122161 c0=0.00372013 enabled=True phases=3
New Line.IDLinea891_IDTramos_92 bus1=91 bus2=92 length=32.129 units=m r1=0.000352234 r0=0.000497666 x1=0.000305055 x0=0.00169813 c1=0.0122161 c0=0.00372013 enabled=True phases=3
New Line.IDLinea891_IDTramos_93 bus1=92 bus2=93 length=20.725 units=m r1=0.000352234 r0=0.000497666 x1=0.000305055 x0=0.00169813 c1=0.0122161 c0=0.00372013 enabled=True phases=3
New Line.IDLinea897_IDTramos_94 bus1=94 bus2=95 length=7.24 units=m r1=0.000352234 r0=0.000497666 x1=0.000305055 x0=0.00169813 c1=0.0122161 c0=0.00372013 enabled=True phases=3
New Line.IDLinea954_IDTramos_95 bus1=59 bus2=60 length=81.889 units=m r1=0.00131006 r0=0.0014555 x1=0.000346644 x0=0.00173971 c1=0.0106534 c0=0.00356164 enabled=True phases=3
New Line.IDLinea955_IDTramos_96 bus1=59 bus2=96 length=45.3 units=m r1=0.000352234 r0=0.000497666 x1=0.000305055 x0=0.00169813 c1=0.0122161 c0=0.00372013 enabled=True phases=3
New Line.IDLinea956_IDTramos_97 bus1=96 bus2=97 length=121.09 units=m r1=0.000352234 r0=0.000497666 x1=0.000305055 x0=0.00169813 c1=0.0122161 c0=0.00372013 enabled=True phases=3
New Line.IDLinea956_IDTramos_98 bus1=97 bus2=98 length=186.876 units=m r1=0.000352234 r0=0.000497666 x1=0.000305055 x0=0.00169813 c1=0.0122161 c0=0.00372013 enabled=True phases=3
New Line.IDLinea956_IDTramos_99 bus1=98 bus2=99 length=235.189 units=m r1=0.000352234 r0=0.000497666 x1=0.000305055 x0=0.00169813 c1=0.0122161 c0=0.00372013 enabled=True phases=3
New Line.IDLinea957_IDTramos_100 bus1=99 bus2=100 length=270.36 units=m r1=0.000352234 r0=0.000497666 x1=0.000305055 x0=0.00169813 c1=0.0122161 c0=0.00372013 enabled=True phases=3
New Line.IDLinea957_IDTramos_101 bus1=100 bus2=101 length=30.08 units=m r1=0.000352234 r0=0.000497666 x1=0.000305055 x0=0.00169813 c1=0.0122161 c0=0.00372013 enabled=True phases=3
New Line.IDLinea961_IDTramos_102 bus1=102 bus2=103 length=10.848 units=m r1=0.000952086 r0=0.00109752 x1=0.00033682 x0=0.00172989 c1=0.0109851 c0=0.00359782 enabled=True phases=3
New Line.IDLinea961_IDTramos_103 bus1=103 bus2=104 length=166.22 units=m r1=0.000952086 r0=0.00109752 x1=0.00033682 x0=0.00172989 c1=0.0109851 c0=0.00359782 enabled=True phases=3
New Line.IDLinea991_IDTramos_104 bus1=62 bus2=105 length=273.675 units=m r1=0.000663124 r0=0.000808557 x1=0.000325502 x0=0.00171857 c1=0.0113939 c0=0.00364045 enabled=True phases=3
New Line.IDLinea908_IDTramos_105 bus1=81 bus2=106 length=117.197 units=m r1=0.000663124 r0=0.000808557 x1=0.000325502 x0=0.00171857 c1=0.0113939 c0=0.00364045 enabled=True phases=3
