dss/import/capas-pablo/Formato-plugin/cooperativa/Demanda_Escenario_01_2023_Caso_1.txt
New Load.Carga_IDSeta_113 phases=3 bus1=X_113.1.2.3.0 kv=0.38 kW=23.655877446505947 pf=0.9 status=variable model=1 CVRwatts=0.8 CVRvars=3 Class=1 daily=334 conn=wye
New Load.Carga_IDSeta_114 phases=3 bus1=X_114.1.2.3.0 kv=0.38 kW=50.93634692877814 pf=0.9 status=variable model=1 CVRwatts=0.8 CVRvars=3 Class=1 daily=334 conn=wye
New Load.Carga_IDSeta_17 phases=3 bus1=X_17.1.2.3.0 kv=0.38 kW=224.2118693511162 pf=0.9 status=variable model=1 CVRwatts=0.8 CVRvars=3 Class=1 daily=334 conn=wye
New Load.Carga_IDSeta_18 phases=3 bus1=X_18.1.2.3.0 kv=0.38 kW=122.27175072626551 pf=0.9 status=variable model=1 CVRwatts=0.8 CVRvars=3 Class=1 daily=334 conn=wye
New Load.Carga_IDSeta_200 phases=3 bus1=X_200.1.2.3.0 kv=0.38 kW=48.468191810849376 pf=0.9 status=variable model=1 CVRwatts=0.8 CVRvars=3 Class=1 daily=334 conn=wye
New Load.Carga_IDSeta_378 phases=3 bus1=X_378.1.2.3.0 kv=0.38 kW=116.14426960154006 pf=0.9 status=variable model=1 CVRwatts=0.8 CVRvars=3 Class=1 daily=334 conn=wye
New Load.Carga_IDSeta_49 phases=3 bus1=X_49.1.2.3.0 kv=0.38 kW=166.5310025181304 pf=0.9 status=variable model=1 CVRwatts=0.8 CVRvars=3 Class=1 daily=334 conn=wye
New Load.Carga_IDSeta_50 phases=3 bus1=X_50.1.2.3.0 kv=0.38 kW=166.47175044990198 pf=0.9 status=variable model=1 CVRwatts=0.8 CVRvars=3 Class=1 daily=334 conn=wye
New Load.Carga_IDSeta_51 phases=3 bus1=X_51.1.2.3.0 kv=0.38 kW=191.19906874395912 pf=0.9 status=variable model=1 CVRwatts=0.8 CVRvars=3 Class=1 daily=334 conn=wye
New Load.Carga_IDSeta_52 phases=3 bus1=X_52.1.2.3.0 kv=0.38 kW=122.53532027114368 pf=0.9 status=variable model=1 CVRwatts=0.8 CVRvars=3 Class=1 daily=334 conn=wye
New Load.Carga_IDSeta_53 phases=3 bus1=X_53.1.2.3.0 kv=0.38 kW=127.75358862477778 pf=0.9 status=variable model=1 CVRwatts=0.8 CVRvars=3 Class=1 daily=334 conn=wye
New Load.Carga_IDSeta_54 phases=3 bus1=X_54.1.2.3.0 kv=0.38 kW=183.09297717535767 pf=0.9 status=variable model=1 CVRwatts=0.8 CVRvars=3 Class=1 daily=334 conn=wye
New Load.Carga_IDSeta_55 phases=3 bus1=X_55.1.2.3.0 kv=0.38 kW=46.83160882288502 pf=0.9 status=variable model=1 CVRwatts=0.8 CVRvars=3 Class=1 daily=334 conn=wye
New Load.Carga_IDSeta_56 phases=3 bus1=X_56.1.2.3.0 kv=0.38 kW=203.9530559983793 pf=0.9 status=variable model=1 CVRwatts=0.8 CVRvars=3 Class=1 daily=334 conn=wye
New Load.Carga_IDSeta_58 phases=3 bus1=X_58.1.2.3.0 kv=0.38 kW=153.36069797328872 pf=0.9 status=variable model=1 CVRwatts=0.8 CVRvars=3 Class=1 daily=334 conn=wye
New Load.Carga_IDSeta_6005 phases=3 bus1=X_6005.1.2.3.0 kv=0.38 kW=92.68494556757115 pf=0.9 status=variable model=1 CVRwatts=0.8 CVRvars=3 Class=1 daily=334 conn=wye
New Load.Carga_IDSeta_61 phases=3 bus1=X_61.1.2.3.0 kv=0.38 kW=207.78474422847776 pf=0.9 status=variable model=1 CVRwatts=0.8 CVRvars=3 Class=1 daily=334 conn=wye
New Load.Carga_IDSeta_62 phases=3 bus1=X_62.1.2.3.0 kv=0.38 kW=120.35692819859955 pf=0.9 status=variable model=1 CVRwatts=0.8 CVRvars=3 Class=1 daily=334 conn=wye
New Load.Carga_IDSeta_63 phases=3 bus1=X_63.1.2.3.0 kv=0.38 kW=85.99518274710562 pf=0.9 status=variable model=1 CVRwatts=0.8 CVRvars=3 Class=1 daily=334 conn=wye
New Load.Carga_IDSeta_65 phases=3 bus1=X_65.1.2.3.0 kv=0.38 kW=94.0105573560746 pf=0.9 status=variable model=1 CVRwatts=0.8 CVRvars=3 Class=1 daily=334 conn=wye
New Load.Carga_IDSeta_68 phases=3 bus1=X_68.1.2.3.0 kv=0.38 kW=74.03239448926381 pf=0.9 status=variable model=1 CVRwatts=0.8 CVRvars=3 Class=1 daily=334 conn=wye
New Load.Carga_IDSeta_73 phases=3 bus1=X_73.1.2.3.0 kv=0.38 kW=123.30355398334665 pf=0.9 status=variable model=1 CVRwatts=0.8 CVRvars=3 Class=1 daily=334 conn=wye
New Load.Carga_IDSeta_77 phases=3 bus1=X_77.1.2.3.0 kv=0.38 kW=122.8899949788599 pf=0.9 status=variable model=1 CVRwatts=0.8 CVRvars=3 Class=1 daily=334 conn=wye
New Load.Carga_IDSeta_78 phases=3 bus1=X_78.1.2.3.0 kv=0.38 kW=196.69144942426655 pf=0.9 status=variable model=1 CVRwatts=0.8 CVRvars=3 Class=1 daily=334 conn=wye
New Load.Carga_IDSeta_83 phases=3 bus1=X_83.1.2.3.0 kv=0.38 kW=146.53036472888817 pf=0.9 status=variable model=1 CVRwatts=0.8 CVRvars=3 Class=1 daily=334 conn=wye
New Load.Carga_IDSeta_86 phases=3 bus1=X_86.1.2.3.0 kv=0.38 kW=126.05162404428555 pf=0.9 status=variable model=1 CVRwatts=0.8 CVRvars=3 Class=1 daily=334 conn=wye
New Load.Carga_IDSeta_87 phases=3 bus1=X_87.1.2.3.0 kv=0.38 kW=76.68239216141083 pf=0.9 status=variable model=1 CVRwatts=0.8 CVRvars=3 Class=1 daily=334 conn=wye
New Load.Carga_IDSeta_88 phases=3 bus1=X_88.1.2.3.0 kv=0.38 kW=22.72214657821668 pf=0.9 status=variable model=1 CVRwatts=0.8 CVRvars=3 Class=1 daily=334 conn=wye
New Load.Carga_IDSeta_90 phases=3 bus1=X_90.1.2.3.0 kv=0.38 kW=87.74822669676031 pf=0.9 status=variable model=1 CVRwatts=0.8 CVRvars=3 Class=1 daily=334 conn=wye
New Load.Carga_IDSeta_97 phases=3 bus1=X_97.1.2.3.0 kv=0.38 kW=82.91611837399417 pf=0.9 status=variable model=1 CVRwatts=0.8 CVRvars=3 Class=1 daily=334 conn=wye
